           9
  Built with Packmol                                             
  F            7.843551        5.544732        2.811471
  S            9.014359        5.162310        3.793097
  N            8.492693        3.934106        4.478211
  O           10.142379        4.933804        2.922692
  O            9.148694        6.317729        4.647033
  S            8.764372        2.578364        3.896700
  O            8.844944        2.852886        2.482347
  O            7.610371        1.819547        4.314701
  F           10.122566        2.165818        4.579150
