          19
  Built with Packmol                                             
  N            6.458546        8.027433        3.881449
  C            7.159972        6.977403        3.514484
  N            8.443937        7.252241        3.586056
  C            8.577427        8.552088        4.023618
  C            7.340095        9.035202        4.207713
  C            4.996617        8.121106        3.937527
  H            6.743945        6.031234        3.201297
  C            9.545832        6.342029        3.259716
  H            9.504115        9.082000        4.187451
  H            7.082689       10.027441        4.547719
  H            4.657108        8.915039        3.272318
  H            4.559001        7.173277        3.624139
  H            4.685223        8.344748        4.957879
  C            8.982415        5.001946        2.815712
  H           10.144012        6.768803        2.454642
  H           10.172127        6.198512        4.140203
  H            9.801695        4.325186        2.573072
  H            8.384530        4.574009        3.620388
  H            8.356415        5.144300        1.934826
