           9
  Built with Packmol                                             
  F            7.033626        9.481519        4.989038
  S            6.866534        9.249643        3.440187
  N            8.282379        9.107905        2.965539
  O            6.076583        8.045581        3.348195
  O            6.191860       10.438349        2.977541
  S            8.928526        7.754761        2.926847
  O            8.268298        7.059709        4.005387
  O           10.320157        8.063948        3.150484
  F            8.579631        7.236753        1.480969
